data_image0
_chemical_formula_structural       Cu8O32C32
_chemical_formula_sum              "Cu8 O32 C32"
_cell_length_a       26.343
_cell_length_b       26.343
_cell_length_c       26.343
_cell_angle_alpha    90.0
_cell_angle_beta     90.0
_cell_angle_gamma    90.0

_space_group_name_H-M_alt    "P 1"
_space_group_IT_number       1

loop_
  _space_group_symop_operation_xyz
  'x, y, z'

loop_
  _atom_site_type_symbol
  _atom_site_label
  _atom_site_symmetry_multiplicity
  _atom_site_fract_x
  _atom_site_fract_y
  _atom_site_fract_z
  _atom_site_occupancy
  Cu  Cu1       1.0  0.2499999999999999  0.24999999999999972  0.24999999999999936  1.0000
  Cu  Cu2       1.0  0.7500000000000004  0.7500000000000004  0.25000000000000083  1.0000
  Cu  Cu3       1.0  0.7500000000000004  0.2500000000000009  0.7500000000000004  1.0000
  Cu  Cu4       1.0  0.25000000000000056  0.75  0.75  1.0000
  Cu  Cu5       1.0  0.24999999999999967  0.24999999999999958  0.75  1.0000
  Cu  Cu6       1.0  0.75  0.75  0.75  1.0000
  Cu  Cu7       1.0  0.2499999999999997  0.75  0.24999999999999983  1.0000
  Cu  Cu8       1.0  0.75  0.2499999999999998  0.24999999999999975  1.0000
  O   O1        1.0  0.20290870286606605  0.20290870286606605  0.20290870286606597  1.0000
  O   O2        1.0  0.7970912971339337  0.7970912971339337  0.20290870286606685  1.0000
  O   O3        1.0  0.7970912971339337  0.202908702866067  0.7970912971339337  1.0000
  O   O4        1.0  0.20290870286606716  0.797091297133934  0.797091297133934  1.0000
  O   O5        1.0  0.20290870286606622  0.20290870286606644  0.7970912971339351  1.0000
  O   O6        1.0  0.7970912971339346  0.7970912971339346  0.7970912971339346  1.0000
  O   O7        1.0  0.20290870286606652  0.7970912971339356  0.20290870286606652  1.0000
  O   O8        1.0  0.7970912971339353  0.2029087028660666  0.20290870286606663  1.0000
  O   O9        1.0  0.2029087028660671  0.7029087028660659  0.7029087028660659  1.0000
  O   O10       1.0  0.7970912971339348  0.2970912971339335  0.7029087028660653  1.0000
  O   O11       1.0  0.7970912971339342  0.7029087028660647  0.29709129713393334  1.0000
  O   O12       1.0  0.20290870286606633  0.29709129713393334  0.2970912971339333  1.0000
  O   O13       1.0  0.2029087028660668  0.7029087028660651  0.2970912971339331  1.0000
  O   O14       1.0  0.797091297133934  0.2970912971339331  0.2970912971339332  1.0000
  O   O15       1.0  0.20290870286606677  0.2970912971339329  0.7029087028660651  1.0000
  O   O16       1.0  0.7970912971339348  0.7029087028660659  0.7029087028660659  1.0000
  O   O17       1.0  0.7029087028660662  0.20290870286606635  0.7029087028660659  1.0000
  O   O18       1.0  0.29709129713393323  0.7970912971339348  0.7029087028660651  1.0000
  O   O19       1.0  0.2970912971339333  0.2029087028660663  0.2970912971339334  1.0000
  O   O20       1.0  0.7029087028660653  0.7970912971339346  0.2970912971339335  1.0000
  O   O21       1.0  0.7029087028660651  0.20290870286606683  0.2970912971339331  1.0000
  O   O22       1.0  0.29709129713393306  0.7970912971339342  0.2970912971339331  1.0000
  O   O23       1.0  0.7029087028660655  0.7970912971339341  0.7029087028660658  1.0000
  O   O24       1.0  0.297091297133933  0.20290870286606685  0.7029087028660651  1.0000
  O   O25       1.0  0.7029087028660661  0.7029087028660661  0.20290870286606633  1.0000
  O   O26       1.0  0.29709129713393334  0.29709129713393334  0.20290870286606646  1.0000
  O   O27       1.0  0.29709129713393323  0.7029087028660651  0.7970912971339348  1.0000
  O   O28       1.0  0.7029087028660653  0.2970912971339335  0.7970912971339346  1.0000
  O   O29       1.0  0.7029087028660658  0.7029087028660658  0.7970912971339341  1.0000
  O   O30       1.0  0.297091297133933  0.297091297133933  0.7970912971339342  1.0000
  O   O31       1.0  0.7029087028660651  0.297091297133933  0.2029087028660669  1.0000
  O   O32       1.0  0.2970912971339331  0.7029087028660651  0.2029087028660669  1.0000
  C   C1        1.0  0.178606569997905  0.17860656999790492  0.1786065699979051  1.0000
  C   C2        1.0  0.8213934300020949  0.8213934300020949  0.17860656999790578  1.0000
  C   C3        1.0  0.8213934300020947  0.1786065699979057  0.8213934300020947  1.0000
  C   C4        1.0  0.17860656999790575  0.8213934300020949  0.8213934300020949  1.0000
  C   C5        1.0  0.17860656999790542  0.17860656999790542  0.8213934300020961  1.0000
  C   C6        1.0  0.8213934300020954  0.8213934300020954  0.8213934300020954  1.0000
  C   C7        1.0  0.1786065699979055  0.8213934300020963  0.17860656999790542  1.0000
  C   C8        1.0  0.8213934300020964  0.17860656999790564  0.1786065699979057  1.0000
  C   C9        1.0  0.17860656999790564  0.678606569997905  0.678606569997905  1.0000
  C   C10       1.0  0.8213934300020962  0.32139343000209314  0.6786065699979036  1.0000
  C   C11       1.0  0.8213934300020962  0.6786065699979037  0.3213934300020933  1.0000
  C   C12       1.0  0.1786065699979048  0.3213934300020941  0.321393430002094  1.0000
  C   C13       1.0  0.17860656999790497  0.6786065699979049  0.3213934300020941  1.0000
  C   C14       1.0  0.8213934300020952  0.3213934300020941  0.3213934300020941  1.0000
  C   C15       1.0  0.178606569997905  0.321393430002094  0.6786065699979049  1.0000
  C   C16       1.0  0.8213934300020951  0.6786065699979048  0.6786065699979048  1.0000
  C   C17       1.0  0.6786065699979041  0.1786065699979062  0.6786065699979055  1.0000
  C   C18       1.0  0.32139343000209314  0.8213934300020962  0.6786065699979037  1.0000
  C   C19       1.0  0.3213934300020941  0.17860656999790475  0.3213934300020941  1.0000
  C   C20       1.0  0.6786065699979037  0.8213934300020962  0.3213934300020931  1.0000
  C   C21       1.0  0.6786065699979048  0.17860656999790497  0.32139343000209397  1.0000
  C   C22       1.0  0.321393430002094  0.8213934300020954  0.3213934300020942  1.0000
  C   C23       1.0  0.6786065699979048  0.8213934300020951  0.6786065699979048  1.0000
  C   C24       1.0  0.321393430002094  0.178606569997905  0.6786065699979049  1.0000
  C   C25       1.0  0.6786065699979048  0.6786065699979048  0.17860656999790606  1.0000
  C   C26       1.0  0.3213934300020941  0.3213934300020941  0.17860656999790478  1.0000
  C   C27       1.0  0.3213934300020931  0.6786065699979036  0.8213934300020963  1.0000
  C   C28       1.0  0.6786065699979037  0.3213934300020931  0.8213934300020962  1.0000
  C   C29       1.0  0.6786065699979049  0.6786065699979049  0.821393430002095  1.0000
  C   C30       1.0  0.321393430002094  0.321393430002094  0.8213934300020954  1.0000
  C   C31       1.0  0.6786065699979049  0.321393430002094  0.17860656999790503  1.0000
  C   C32       1.0  0.321393430002094  0.6786065699979049  0.178606569997905  1.0000
